Don't understand command line args: –db ./bench.db –dir results/gcc1 –benchmark gcc –sim /home/surya/Documents/ece587/simulator/ss3_1/sim-outorder -args “-fastfwd 1000000 –max:inst 1000000 -bpred comb”
